IK2
 OpenBabel01292611183D

 33 33  0  0  0  0  0  0  0  0999 V2000
   42.7730   18.3490   25.6820 N   0  0  0  0  0  0  0  0  0  0  0  0
   43.0140   19.6210   25.9970 C   0  0  0  0  0  0  0  0  0  0  0  0
   42.4350   20.1680   27.2610 C   0  0  0  0  0  0  0  0  0  0  0  0
   43.7560   20.4440   25.1450 C   0  0  0  0  0  0  0  0  0  0  0  0
   43.9630   21.7460   25.5050 O   0  0  0  0  0  0  0  0  0  0  0  0
   44.2660   19.9150   23.9520 C   0  0  0  0  0  0  0  0  0  0  0  0
   45.0030   20.7970   22.9740 C   0  0  0  0  0  0  0  0  0  0  0  0
   44.1660   21.9010   22.4690 N   0  0  0  0  0  0  0  0  0  0  0  0
   44.7050   22.5930   21.3090 O   0  0  0  0  0  0  0  0  0  0  0  0
   45.8510   23.3450   21.7150 C   0  0  0  0  0  0  0  0  0  0  0  0
   45.5460   24.3290   22.8330 C   0  0  0  0  0  0  0  0  0  0  0  0
   45.4930   25.5270   22.5090 O   0  0  0  0  0  0  0  0  0  0  0  0
   45.4160   23.8950   23.9940 O   0  5  0  0  0  0  0  0  0  0  0  0
   44.0340   18.5610   23.6550 C   0  0  0  0  0  0  0  0  0  0  0  0
   43.2480   17.8410   24.5340 C   0  0  0  0  0  0  0  0  0  0  0  0
   44.4320   17.9690   22.3360 C   0  0  0  0  0  0  0  0  0  0  0  0
   45.8700   17.8220   22.1180 O   0  0  0  0  0  0  0  0  0  0  0  0
   46.4100   17.8110   20.5930 P   0  0  0  0  0  0  0  0  0  0  0  0
   45.7340   16.6520   19.8800 O   0  0  0  0  0  0  0  0  0  0  0  0
   47.9070   17.6380   20.6940 O   0  5  0  0  0  0  0  0  0  0  0  0
   46.0250   19.1610   20.0360 O   0  5  0  0  0  0  0  0  0  0  0  0
   41.9052   19.3934   27.7751 H   0  0  0  0  0  0  0  0  0  0  0  0
   41.7620   20.9668   27.0286 H   0  0  0  0  0  0  0  0  0  0  0  0
   43.2231   20.5356   27.8845 H   0  0  0  0  0  0  0  0  0  0  0  0
   43.6094   22.0716   26.3093 H   0  0  0  0  0  0  0  0  0  0  0  0
   45.3204   20.1998   22.1448 H   0  0  0  0  0  0  0  0  0  0  0  0
   45.8357   21.2289   23.4887 H   0  0  0  0  0  0  0  0  0  0  0  0
   44.0517   22.5818   23.2199 H   0  0  0  0  0  0  0  0  0  0  0  0
   46.2184   23.8903   20.8708 H   0  0  0  0  0  0  0  0  0  0  0  0
   46.5759   22.6510   22.0863 H   0  0  0  0  0  0  0  0  0  0  0  0
   43.0146   16.8643   24.2961 H   0  0  0  0  0  0  0  0  0  0  0  0
   44.0443   18.5983   21.5623 H   0  0  0  0  0  0  0  0  0  0  0  0
   44.0317   16.9767   22.3277 H   0  0  0  0  0  0  0  0  0  0  0  0
  1  2  2  0  0  0  0
  1 15  1  0  0  0  0
  2  3  1  0  0  0  0
  2  4  1  0  0  0  0
  3 22  1  0  0  0  0
  3 23  1  0  0  0  0
  3 24  1  0  0  0  0
  4  5  1  0  0  0  0
  4  6  2  0  0  0  0
  5 25  1  0  0  0  0
  6  7  1  0  0  0  0
  6 14  1  0  0  0  0
  7  8  1  0  0  0  0
  7 26  1  0  0  0  0
  7 27  1  0  0  0  0
  8  9  1  0  0  0  0
  8 28  1  0  0  0  0
  9 10  1  0  0  0  0
 10 11  1  0  0  0  0
 10 29  1  0  0  0  0
 10 30  1  0  0  0  0
 11 12  2  0  0  0  0
 11 13  1  0  0  0  0
 14 15  2  0  0  0  0
 14 16  1  0  0  0  0
 15 31  1  0  0  0  0
 16 17  1  0  0  0  0
 16 32  1  0  0  0  0
 16 33  1  0  0  0  0
 17 18  1  0  0  0  0
 18 19  2  0  0  0  0
 18 20  1  0  0  0  0
 18 21  1  0  0  0  0
M  CHG  3  13  -1  20  -1  21  -1
M  END
$$$$
